src/examples/case14_twoarea/two_area_02pulim_1_3/res_branch_2.csv
branch,from_bus,to_bus,X,B,G,Bfr,Bto,p_from,p_to,q_from,q_to,p_loss,q_loss,s_from,s_to,rate_a,ang_deg,angmin,angmax
7,4,5,0.035091666666666674,-24.893929112009626,9.470452253013397,0.0,0.0,-0.02375203724116071,0.023770110863358403,0.03023486938071762,-0.030187361251451418,1.8073622197693068e-5,4.750812926620357e-5,0.03844875290012072,0.03842258385093303,0.2,-0.06495829322065402,-60.0001403060998,60.0001403060998
4,2,4,0.14693333333333336,-5.885295774936327,2.3275490300468458,0.014166666666666668,0.014166666666666668,0.14445930274350624,-0.14333962205701173,0.009245165532198202,-0.03768775396195919,0.001119680686494512,-0.02844258842976099,0.14475483838151226,0.14821138299787953,0.2,1.0263624825512252,-60.0001403060998,60.0001403060998
2,1,5,0.18586666666666668,-4.960987561041088,1.4421206487968972,0.0205,0.0205,0.1644638895961493,-0.16307036630745664,0.020910899493023903,-0.06150529264674094,0.0013935232886926607,-0.04059439315371704,0.1657879268785931,0.17428380702523494,0.2,1.4595406012902672,-60.0001403060998,60.0001403060998
3,2,3,0.164975,-5.606663082452164,1.5969516487008768,0.01825,0.01825,0.17352378765092816,-0.17204164088314744,0.050899473009240706,-0.08570600374782433,0.0014821467677807176,-0.03480653073858363,0.18083490048478704,0.19220781793722114,0.2,1.321616694998602,-60.0001403060998,60.0001403060998
5,2,5,0.14490000000000003,-5.977892318521822,2.3494890789497425,0.014416666666666668,0.014416666666666668,0.14071411810324225,-0.13964753598466512,0.016980046471090866,-0.046070513300650456,0.0010665821185771307,-0.02909046682955959,0.141734911054876,0.14705076165179748,0.2,0.9614041893305711,-60.0001403060998,60.0001403060998
6,3,4,0.142525,-5.746114879729376,2.701611353030454,0.005333333333333334,0.005333333333333334,-0.05255834912438386,0.0527804741640782,-0.034145741097419836,0.02305196142784466,0.00022212503969434166,-0.011093779669575178,0.0626762450835454,0.05759489021307155,0.2,-0.2952542124473767,-60.0001403060998,60.0001403060998
1,1,2,0.04930833333333334,-17.566853542948998,6.904423626750412,0.022000000000000002,0.022000000000000002,0.19890385582695141,-0.19822122229996095,-0.020910909482084256,-0.026614977540469993,0.0006826335269904671,-0.04752588702255425,0.20000002499548994,0.20000002499892408,0.2,0.4981364119596963,-60.0001403060998,60.0001403060998
